Conversion/opendss_conversion/dss_files/net_1_Rural_SMR8/08_LV_Lines.dss
New Line.mv_f0_lv0_f0_l0 bus1=mv_f0_lv0_busbar.1.2.3 bus2=mv_f0_lv0_f0_n0.1.2.3 phases=3 length=15.42 units=m linecode=lc_247-3ph
New Line.mv_f0_lv0_f0_l0_ls bus1=mv_f0_lv0_f0_n0.1.2.3 bus2=mv_f0_lv0_f0_c0.1.2.3 phases=3 length=10.0 units=m linecode=lc_248-3ph
New Line.mv_f0_lv1_f0_l0 bus1=mv_f0_lv1_busbar.1.2.3 bus2=mv_f0_lv1_f0_n0.1.2.3 phases=3 length=15.42 units=m linecode=lc_247-3ph
New Line.mv_f0_lv1_f0_l0_ls bus1=mv_f0_lv1_f0_n0.1.2.3 bus2=mv_f0_lv1_f0_c0.1.2.3 phases=3 length=10.0 units=m linecode=lc_248-3ph
New Line.mv_f0_lv2_f0_l0 bus1=mv_f0_lv2_busbar.1.2.3 bus2=mv_f0_lv2_f0_n0.1.2.3 phases=3 length=18.63 units=m linecode=lc_247-3ph
New Line.mv_f0_lv2_f0_l0_ls bus1=mv_f0_lv2_f0_n0.1.2.3 bus2=mv_f0_lv2_f0_c0.1.2.3 phases=3 length=10.0 units=m linecode=lc_248-3ph
New Line.mv_f0_lv3_f0_l0 bus1=mv_f0_lv3_busbar.1.2.3 bus2=mv_f0_lv3_f0_n0.1.2.3 phases=3 length=15.42 units=m linecode=lc_247-3ph
New Line.mv_f0_lv3_f0_l0_ls bus1=mv_f0_lv3_f0_n0.1.2.3 bus2=mv_f0_lv3_f0_c0.1.2.3 phases=3 length=10.0 units=m linecode=lc_248-3ph
New Line.mv_f0_lv3_f0_l1 bus1=mv_f0_lv3_f0_n0.1.2.3 bus2=mv_f0_lv3_f0_n1.1.2.3 phases=3 length=15.42 units=m linecode=lc_247-3ph
New Line.mv_f0_lv3_f0_l1_ls bus1=mv_f0_lv3_f0_n1.1.2.3 bus2=mv_f0_lv3_f0_c1.1.2.3 phases=3 length=10.0 units=m linecode=lc_248-3ph
New Line.mv_f0_lv4_f0_l0 bus1=mv_f0_lv4_busbar.1.2.3 bus2=mv_f0_lv4_f0_n0.1.2.3 phases=3 length=15.42 units=m linecode=lc_247-3ph
New Line.mv_f0_lv4_f0_l0_ls bus1=mv_f0_lv4_f0_n0.1.2.3 bus2=mv_f0_lv4_f0_c0.1.2.3 phases=3 length=10.0 units=m linecode=lc_248-3ph
New Line.mv_f0_lv5_f0_l0 bus1=mv_f0_lv5_busbar.1.2.3 bus2=mv_f0_lv5_f0_n0.1.2.3 phases=3 length=15.42 units=m linecode=lc_247-3ph
New Line.mv_f0_lv5_f0_l0_ls bus1=mv_f0_lv5_f0_n0.1.2.3 bus2=mv_f0_lv5_f0_c0.1.2.3 phases=3 length=10.0 units=m linecode=lc_248-3ph
New Line.mv_f0_lv5_f0_l1 bus1=mv_f0_lv5_f0_n0.1.2.3 bus2=mv_f0_lv5_f0_n1.1.2.3 phases=3 length=15.42 units=m linecode=lc_247-3ph
New Line.mv_f0_lv5_f0_l1_ls bus1=mv_f0_lv5_f0_n1.1.2.3 bus2=mv_f0_lv5_f0_c1.1.2.3 phases=3 length=10.0 units=m linecode=lc_248-3ph
New Line.mv_f0_lv5_f0_l2 bus1=mv_f0_lv5_f0_n1.1.2.3 bus2=mv_f0_lv5_f0_n2.1.2.3 phases=3 length=15.42 units=m linecode=lc_247-3ph
New Line.mv_f0_lv5_f0_l2_ls bus1=mv_f0_lv5_f0_n2.1.2.3 bus2=mv_f0_lv5_f0_c2.1.2.3 phases=3 length=10.0 units=m linecode=lc_248-3ph
New Line.mv_f0_lv6_f0_l0 bus1=mv_f0_lv6_busbar.1.2.3 bus2=mv_f0_lv6_f0_n0.1.2.3 phases=3 length=15.42 units=m linecode=lc_247-3ph
New Line.mv_f0_lv6_f0_l0_ls bus1=mv_f0_lv6_f0_n0.1.2.3 bus2=mv_f0_lv6_f0_c0.1.2.3 phases=3 length=10.0 units=m linecode=lc_248-3ph
New Line.mv_f0_lv7_f0_l0 bus1=mv_f0_lv7_busbar.1.2.3 bus2=mv_f0_lv7_f0_n0.1.2.3 phases=3 length=15.42 units=m linecode=lc_247-3ph
New Line.mv_f0_lv7_f0_l0_ls bus1=mv_f0_lv7_f0_n0.1.2.3 bus2=mv_f0_lv7_f0_c0.1.2.3 phases=3 length=10.0 units=m linecode=lc_248-3ph
New Line.mv_f0_lv7_f0_l1 bus1=mv_f0_lv7_f0_n0.1.2.3 bus2=mv_f0_lv7_f0_n1.1.2.3 phases=3 length=15.42 units=m linecode=lc_247-3ph
New Line.mv_f0_lv7_f0_l1_ls bus1=mv_f0_lv7_f0_n1.1.2.3 bus2=mv_f0_lv7_f0_c1.1.2.3 phases=3 length=10.0 units=m linecode=lc_248-3ph
New Line.mv_f0_lv8_f0_l0 bus1=mv_f0_lv8_busbar.1.2.3 bus2=mv_f0_lv8_f0_n0.1.2.3 phases=3 length=15.42 units=m linecode=lc_247-3ph
New Line.mv_f0_lv8_f0_l0_ls bus1=mv_f0_lv8_f0_n0.1.2.3 bus2=mv_f0_lv8_f0_c0.1.2.3 phases=3 length=10.0 units=m linecode=lc_248-3ph
New Line.mv_f0_lv9_f0_l0 bus1=mv_f0_lv9_busbar.1.2.3 bus2=mv_f0_lv9_f0_n0.1.2.3 phases=3 length=15.42 units=m linecode=lc_247-3ph
New Line.mv_f0_lv9_f0_l0_ls bus1=mv_f0_lv9_f0_n0.1.2.3 bus2=mv_f0_lv9_f0_c0.1.2.3 phases=3 length=10.0 units=m linecode=lc_248-3ph
New Line.mv_f0_lv10_f0_l0 bus1=mv_f0_lv10_busbar.1.2.3 bus2=mv_f0_lv10_f0_n0.1.2.3 phases=3 length=15.42 units=m linecode=lc_247-3ph
New Line.mv_f0_lv10_f0_l0_ls bus1=mv_f0_lv10_f0_n0.1.2.3 bus2=mv_f0_lv10_f0_c0.1.2.3 phases=3 length=10.0 units=m linecode=lc_248-3ph
New Line.mv_f0_lv10_f0_l1 bus1=mv_f0_lv10_f0_n0.1.2.3 bus2=mv_f0_lv10_f0_n1.1.2.3 phases=3 length=15.42 units=m linecode=lc_247-3ph
New Line.mv_f0_lv10_f0_l1_ls bus1=mv_f0_lv10_f0_n1.1.2.3 bus2=mv_f0_lv10_f0_c1.1.2.3 phases=3 length=10.0 units=m linecode=lc_248-3ph
New Line.mv_f0_lv10_f0_l2 bus1=mv_f0_lv10_f0_n1.1.2.3 bus2=mv_f0_lv10_f0_n2.1.2.3 phases=3 length=15.42 units=m linecode=lc_247-3ph
New Line.mv_f0_lv10_f0_l2_ls bus1=mv_f0_lv10_f0_n2.1.2.3 bus2=mv_f0_lv10_f0_c2.1.2.3 phases=3 length=10.0 units=m linecode=lc_248-3ph
New Line.mv_f0_lv10_f0_l3 bus1=mv_f0_lv10_f0_n2.1.2.3 bus2=mv_f0_lv10_f0_n3.1.2.3 phases=3 length=15.42 units=m linecode=lc_247-3ph
New Line.mv_f0_lv10_f0_l3_ls bus1=mv_f0_lv10_f0_n3.1.2.3 bus2=mv_f0_lv10_f0_c3.1.2.3 phases=3 length=10.0 units=m linecode=lc_248-3ph
New Line.mv_f0_lv10_f0_l4 bus1=mv_f0_lv10_f0_n3.1.2.3 bus2=mv_f0_lv10_f0_n4.1.2.3 phases=3 length=15.42 units=m linecode=lc_247-3ph
New Line.mv_f0_lv10_f0_l4_ls bus1=mv_f0_lv10_f0_n4.1.2.3 bus2=mv_f0_lv10_f0_c4.1.2.3 phases=3 length=10.0 units=m linecode=lc_248-3ph
New Line.mv_f0_lv10_f0_l5 bus1=mv_f0_lv10_f0_n4.1.2.3 bus2=mv_f0_lv10_f0_n5.1.2.3 phases=3 length=15.42 units=m linecode=lc_247-3ph
New Line.mv_f0_lv10_f0_l5_ls bus1=mv_f0_lv10_f0_n5.1.2.3 bus2=mv_f0_lv10_f0_c5.1.2.3 phases=3 length=10.0 units=m linecode=lc_248-3ph
New Line.mv_f0_lv10_f0_l6 bus1=mv_f0_lv10_f0_n5.1.2.3 bus2=mv_f0_lv10_f0_n6.1.2.3 phases=3 length=15.42 units=m linecode=lc_247-3ph
New Line.mv_f0_lv10_f0_l6_ls bus1=mv_f0_lv10_f0_n6.1.2.3 bus2=mv_f0_lv10_f0_c6.1.2.3 phases=3 length=10.0 units=m linecode=lc_248-3ph
New Line.mv_f0_lv10_f0_l7 bus1=mv_f0_lv10_f0_n6.1.2.3 bus2=mv_f0_lv10_f0_n7.1.2.3 phases=3 length=15.42 units=m linecode=lc_247-3ph
New Line.mv_f0_lv10_f0_l7_ls bus1=mv_f0_lv10_f0_n7.1.2.3 bus2=mv_f0_lv10_f0_c7.1.2.3 phases=3 length=10.0 units=m linecode=lc_248-3ph
New Line.mv_f0_lv10_f0_l8 bus1=mv_f0_lv10_f0_n7.1.2.3 bus2=mv_f0_lv10_f0_n8.1.2.3 phases=3 length=15.42 units=m linecode=lc_247-3ph
New Line.mv_f0_lv10_f0_l8_ls bus1=mv_f0_lv10_f0_n8.1.2.3 bus2=mv_f0_lv10_f0_c8.1.2.3 phases=3 length=10.0 units=m linecode=lc_248-3ph
New Line.mv_f0_lv10_f0_l9 bus1=mv_f0_lv10_f0_n8.1.2.3 bus2=mv_f0_lv10_f0_n9.1.2.3 phases=3 length=15.42 units=m linecode=lc_247-3ph
New Line.mv_f0_lv10_f0_l9_ls bus1=mv_f0_lv10_f0_n9.1.2.3 bus2=mv_f0_lv10_f0_c9.1.2.3 phases=3 length=10.0 units=m linecode=lc_248-3ph
New Line.mv_f0_lv10_f0_l10 bus1=mv_f0_lv10_f0_n9.1.2.3 bus2=mv_f0_lv10_f0_n10.1.2.3 phases=3 length=15.42 units=m linecode=lc_247-3ph
New Line.mv_f0_lv10_f0_l10_ls bus1=mv_f0_lv10_f0_n10.1.2.3 bus2=mv_f0_lv10_f0_c10.1.2.3 phases=3 length=10.0 units=m linecode=lc_248-3ph
New Line.mv_f0_lv10_f0_l11 bus1=mv_f0_lv10_f0_n10.1.2.3 bus2=mv_f0_lv10_f0_n11.1.2.3 phases=3 length=15.42 units=m linecode=lc_247-3ph
New Line.mv_f0_lv10_f0_l11_ls bus1=mv_f0_lv10_f0_n11.1.2.3 bus2=mv_f0_lv10_f0_c11.1.2.3 phases=3 length=10.0 units=m linecode=lc_248-3ph
New Line.mv_f0_lv11_f0_l0 bus1=mv_f0_lv11_busbar.1.2.3 bus2=mv_f0_lv11_f0_n0.1.2.3 phases=3 length=15.42 units=m linecode=lc_247-3ph
New Line.mv_f0_lv11_f0_l0_ls bus1=mv_f0_lv11_f0_n0.1.2.3 bus2=mv_f0_lv11_f0_c0.1.2.3 phases=3 length=10.0 units=m linecode=lc_248-3ph
New Line.mv_f0_lv12_f0_l0 bus1=mv_f0_lv12_busbar.1.2.3 bus2=mv_f0_lv12_f0_n0.1.2.3 phases=3 length=15.42 units=m linecode=lc_247-3ph
New Line.mv_f0_lv12_f0_l0_ls bus1=mv_f0_lv12_f0_n0.1.2.3 bus2=mv_f0_lv12_f0_c0.1.2.3 phases=3 length=10.0 units=m linecode=lc_248-3ph
New Line.mv_f0_lv12_f0_l1 bus1=mv_f0_lv12_f0_n0.1.2.3 bus2=mv_f0_lv12_f0_n1.1.2.3 phases=3 length=15.42 units=m linecode=lc_247-3ph
New Line.mv_f0_lv12_f0_l1_ls bus1=mv_f0_lv12_f0_n1.1.2.3 bus2=mv_f0_lv12_f0_c1.1.2.3 phases=3 length=10.0 units=m linecode=lc_248-3ph
New Line.mv_f0_lv13_f0_l0 bus1=mv_f0_lv13_busbar.1.2.3 bus2=mv_f0_lv13_f0_n0.1.2.3 phases=3 length=15.42 units=m linecode=lc_247-3ph
New Line.mv_f0_lv13_f0_l0_ls bus1=mv_f0_lv13_f0_n0.1.2.3 bus2=mv_f0_lv13_f0_c0.1.2.3 phases=3 length=10.0 units=m linecode=lc_248-3ph
New Line.mv_f0_lv13_f0_l1 bus1=mv_f0_lv13_f0_n0.1.2.3 bus2=mv_f0_lv13_f0_n1.1.2.3 phases=3 length=15.42 units=m linecode=lc_247-3ph
New Line.mv_f0_lv13_f0_l1_ls bus1=mv_f0_lv13_f0_n1.1.2.3 bus2=mv_f0_lv13_f0_c1.1.2.3 phases=3 length=10.0 units=m linecode=lc_248-3ph
New Line.mv_f0_lv14_f0_l0 bus1=mv_f0_lv14_busbar.1.2.3 bus2=mv_f0_lv14_f0_n0.1.2.3 phases=3 length=15.42 units=m linecode=lc_247-3ph
New Line.mv_f0_lv14_f0_l0_ls bus1=mv_f0_lv14_f0_n0.1.2.3 bus2=mv_f0_lv14_f0_c0.1.2.3 phases=3 length=10.0 units=m linecode=lc_248-3ph
New Line.mv_f0_lv14_f0_l1 bus1=mv_f0_lv14_f0_n0.1.2.3 bus2=mv_f0_lv14_f0_n1.1.2.3 phases=3 length=15.42 units=m linecode=lc_247-3ph
New Line.mv_f0_lv14_f0_l1_ls bus1=mv_f0_lv14_f0_n1.1.2.3 bus2=mv_f0_lv14_f0_c1.1.2.3 phases=3 length=10.0 units=m linecode=lc_248-3ph
New Line.mv_f0_lv14_f0_l2 bus1=mv_f0_lv14_f0_n1.1.2.3 bus2=mv_f0_lv14_f0_n2.1.2.3 phases=3 length=15.42 units=m linecode=lc_247-3ph
New Line.mv_f0_lv14_f0_l2_ls bus1=mv_f0_lv14_f0_n2.1.2.3 bus2=mv_f0_lv14_f0_c2.1.2.3 phases=3 length=10.0 units=m linecode=lc_248-3ph
New Line.mv_f0_lv14_f0_l3 bus1=mv_f0_lv14_f0_n2.1.2.3 bus2=mv_f0_lv14_f0_n3.1.2.3 phases=3 length=15.42 units=m linecode=lc_247-3ph
New Line.mv_f0_lv14_f0_l3_ls bus1=mv_f0_lv14_f0_n3.1.2.3 bus2=mv_f0_lv14_f0_c3.1.2.3 phases=3 length=10.0 units=m linecode=lc_248-3ph
New Line.mv_f0_lv14_f0_l4 bus1=mv_f0_lv14_f0_n3.1.2.3 bus2=mv_f0_lv14_f0_n4.1.2.3 phases=3 length=15.42 units=m linecode=lc_247-3ph
New Line.mv_f0_lv14_f0_l4_ls bus1=mv_f0_lv14_f0_n4.1.2.3 bus2=mv_f0_lv14_f0_c4.1.2.3 phases=3 length=10.0 units=m linecode=lc_248-3ph
New Line.mv_f0_lv14_f0_l5 bus1=mv_f0_lv14_f0_n4.1.2.3 bus2=mv_f0_lv14_f0_n5.1.2.3 phases=3 length=15.42 units=m linecode=lc_247-3ph
New Line.mv_f0_lv14_f0_l5_ls bus1=mv_f0_lv14_f0_n5.1.2.3 bus2=mv_f0_lv14_f0_c5.1.2.3 phases=3 length=10.0 units=m linecode=lc_248-3ph
New Line.mv_f0_lv15_f0_l0 bus1=mv_f0_lv15_busbar.1.2.3 bus2=mv_f0_lv15_f0_n0.1.2.3 phases=3 length=15.42 units=m linecode=lc_247-3ph
New Line.mv_f0_lv15_f0_l0_ls bus1=mv_f0_lv15_f0_n0.1.2.3 bus2=mv_f0_lv15_f0_c0.1.2.3 phases=3 length=10.0 units=m linecode=lc_248-3ph
New Line.mv_f0_lv16_f0_l0 bus1=mv_f0_lv16_busbar.1.2.3 bus2=mv_f0_lv16_f0_n0.1.2.3 phases=3 length=18.63 units=m linecode=lc_247-3ph
New Line.mv_f0_lv16_f0_l0_ls bus1=mv_f0_lv16_f0_n0.1.2.3 bus2=mv_f0_lv16_f0_c0.1.2.3 phases=3 length=10.0 units=m linecode=lc_248-3ph
New Line.mv_f0_lv17_f0_l0 bus1=mv_f0_lv17_busbar.1.2.3 bus2=mv_f0_lv17_f0_n0.1.2.3 phases=3 length=15.42 units=m linecode=lc_247-3ph
New Line.mv_f0_lv17_f0_l0_ls bus1=mv_f0_lv17_f0_n0.1.2.3 bus2=mv_f0_lv17_f0_c0.1.2.3 phases=3 length=10.0 units=m linecode=lc_248-3ph
New Line.mv_f0_lv18_f0_l0 bus1=mv_f0_lv18_busbar.1.2.3 bus2=mv_f0_lv18_f0_n0.1.2.3 phases=3 length=15.42 units=m linecode=lc_247-3ph
New Line.mv_f0_lv18_f0_l0_ls bus1=mv_f0_lv18_f0_n0.1.2.3 bus2=mv_f0_lv18_f0_c0.1.2.3 phases=3 length=10.0 units=m linecode=lc_248-3ph
New Line.mv_f0_lv18_f0_l1 bus1=mv_f0_lv18_f0_n0.1.2.3 bus2=mv_f0_lv18_f0_n1.1.2.3 phases=3 length=15.42 units=m linecode=lc_247-3ph
New Line.mv_f0_lv18_f0_l1_ls bus1=mv_f0_lv18_f0_n1.1.2.3 bus2=mv_f0_lv18_f0_c1.1.2.3 phases=3 length=10.0 units=m linecode=lc_248-3ph
New Line.mv_f0_lv19_f0_l0 bus1=mv_f0_lv19_busbar.1.2.3 bus2=mv_f0_lv19_f0_n0.1.2.3 phases=3 length=15.42 units=m linecode=lc_247-3ph
New Line.mv_f0_lv19_f0_l0_ls bus1=mv_f0_lv19_f0_n0.1.2.3 bus2=mv_f0_lv19_f0_c0.1.2.3 phases=3 length=10.0 units=m linecode=lc_248-3ph
New Line.mv_f0_lv20_f0_l0 bus1=mv_f0_lv20_busbar.1.2.3 bus2=mv_f0_lv20_f0_n0.1.2.3 phases=3 length=15.42 units=m linecode=lc_247-3ph
New Line.mv_f0_lv20_f0_l0_ls bus1=mv_f0_lv20_f0_n0.1.2.3 bus2=mv_f0_lv20_f0_c0.1.2.3 phases=3 length=10.0 units=m linecode=lc_248-3ph
New Line.mv_f0_lv21_f0_l0 bus1=mv_f0_lv21_busbar.1.2.3 bus2=mv_f0_lv21_f0_n0.1.2.3 phases=3 length=18.63 units=m linecode=lc_247-3ph
New Line.mv_f0_lv21_f0_l0_ls bus1=mv_f0_lv21_f0_n0.1.2.3 bus2=mv_f0_lv21_f0_c0.1.2.3 phases=3 length=10.0 units=m linecode=lc_248-3ph
New Line.mv_f0_lv22_f0_l0 bus1=mv_f0_lv22_busbar.1.2.3 bus2=mv_f0_lv22_f0_n0.1.2.3 phases=3 length=15.42 units=m linecode=lc_247-3ph
New Line.mv_f0_lv22_f0_l0_ls bus1=mv_f0_lv22_f0_n0.1.2.3 bus2=mv_f0_lv22_f0_c0.1.2.3 phases=3 length=10.0 units=m linecode=lc_248-3ph
New Line.mv_f0_lv23_f0_l0 bus1=mv_f0_lv23_busbar.1.2.3 bus2=mv_f0_lv23_f0_n0.1.2.3 phases=3 length=15.42 units=m linecode=lc_247-3ph
New Line.mv_f0_lv23_f0_l0_ls bus1=mv_f0_lv23_f0_n0.1.2.3 bus2=mv_f0_lv23_f0_c0.1.2.3 phases=3 length=10.0 units=m linecode=lc_248-3ph
New Line.mv_f0_lv23_f0_l1 bus1=mv_f0_lv23_f0_n0.1.2.3 bus2=mv_f0_lv23_f0_n1.1.2.3 phases=3 length=15.42 units=m linecode=lc_247-3ph
New Line.mv_f0_lv23_f0_l1_ls bus1=mv_f0_lv23_f0_n1.1.2.3 bus2=mv_f0_lv23_f0_c1.1.2.3 phases=3 length=10.0 units=m linecode=lc_248-3ph
New Line.mv_f0_lv24_f0_l0 bus1=mv_f0_lv24_busbar.1.2.3 bus2=mv_f0_lv24_f0_n0.1.2.3 phases=3 length=15.42 units=m linecode=lc_247-3ph
New Line.mv_f0_lv24_f0_l0_ls bus1=mv_f0_lv24_f0_n0.1.2.3 bus2=mv_f0_lv24_f0_c0.1.2.3 phases=3 length=10.0 units=m linecode=lc_248-3ph
New Line.mv_f0_lv24_f0_l1 bus1=mv_f0_lv24_f0_n0.1.2.3 bus2=mv_f0_lv24_f0_n1.1.2.3 phases=3 length=15.42 units=m linecode=lc_247-3ph
New Line.mv_f0_lv24_f0_l1_ls bus1=mv_f0_lv24_f0_n1.1.2.3 bus2=mv_f0_lv24_f0_c1.1.2.3 phases=3 length=10.0 units=m linecode=lc_248-3ph
New Line.mv_f0_lv25_f0_l0 bus1=mv_f0_lv25_busbar.1.2.3 bus2=mv_f0_lv25_f0_n0.1.2.3 phases=3 length=15.42 units=m linecode=lc_247-3ph
New Line.mv_f0_lv25_f0_l0_ls bus1=mv_f0_lv25_f0_n0.1.2.3 bus2=mv_f0_lv25_f0_c0.1.2.3 phases=3 length=10.0 units=m linecode=lc_248-3ph
New Line.mv_f0_lv26_f0_l0 bus1=mv_f0_lv26_busbar.1.2.3 bus2=mv_f0_lv26_f0_n0.1.2.3 phases=3 length=15.42 units=m linecode=lc_247-3ph
New Line.mv_f0_lv26_f0_l0_ls bus1=mv_f0_lv26_f0_n0.1.2.3 bus2=mv_f0_lv26_f0_c0.1.2.3 phases=3 length=10.0 units=m linecode=lc_248-3ph
New Line.mv_f0_lv27_f0_l0 bus1=mv_f0_lv27_busbar.1.2.3 bus2=mv_f0_lv27_f0_n0.1.2.3 phases=3 length=15.42 units=m linecode=lc_247-3ph
New Line.mv_f0_lv27_f0_l0_ls bus1=mv_f0_lv27_f0_n0.1.2.3 bus2=mv_f0_lv27_f0_c0.1.2.3 phases=3 length=10.0 units=m linecode=lc_248-3ph
New Line.mv_f0_lv28_f0_l0 bus1=mv_f0_lv28_busbar.1.2.3 bus2=mv_f0_lv28_f0_n0.1.2.3 phases=3 length=15.42 units=m linecode=lc_247-3ph
New Line.mv_f0_lv28_f0_l0_ls bus1=mv_f0_lv28_f0_n0.1.2.3 bus2=mv_f0_lv28_f0_c0.1.2.3 phases=3 length=10.0 units=m linecode=lc_248-3ph
New Line.mv_f0_lv28_f0_l1 bus1=mv_f0_lv28_f0_n0.1.2.3 bus2=mv_f0_lv28_f0_n1.1.2.3 phases=3 length=15.42 units=m linecode=lc_247-3ph
New Line.mv_f0_lv28_f0_l1_ls bus1=mv_f0_lv28_f0_n1.1.2.3 bus2=mv_f0_lv28_f0_c1.1.2.3 phases=3 length=10.0 units=m linecode=lc_248-3ph
New Line.mv_f0_lv29_f0_l0 bus1=mv_f0_lv29_busbar.1.2.3 bus2=mv_f0_lv29_f0_n0.1.2.3 phases=3 length=15.42 units=m linecode=lc_247-3ph
New Line.mv_f0_lv29_f0_l0_ls bus1=mv_f0_lv29_f0_n0.1.2.3 bus2=mv_f0_lv29_f0_c0.1.2.3 phases=3 length=10.0 units=m linecode=lc_248-3ph
New Line.mv_f0_lv29_f0_l1 bus1=mv_f0_lv29_f0_n0.1.2.3 bus2=mv_f0_lv29_f0_n1.1.2.3 phases=3 length=15.42 units=m linecode=lc_247-3ph
New Line.mv_f0_lv29_f0_l1_ls bus1=mv_f0_lv29_f0_n1.1.2.3 bus2=mv_f0_lv29_f0_c1.1.2.3 phases=3 length=10.0 units=m linecode=lc_248-3ph
New Line.mv_f0_lv29_f0_l2 bus1=mv_f0_lv29_f0_n1.1.2.3 bus2=mv_f0_lv29_f0_n2.1.2.3 phases=3 length=15.42 units=m linecode=lc_247-3ph
New Line.mv_f0_lv29_f0_l2_ls bus1=mv_f0_lv29_f0_n2.1.2.3 bus2=mv_f0_lv29_f0_c2.1.2.3 phases=3 length=10.0 units=m linecode=lc_248-3ph
New Line.mv_f0_lv29_f0_l3 bus1=mv_f0_lv29_f0_n2.1.2.3 bus2=mv_f0_lv29_f0_n3.1.2.3 phases=3 length=15.42 units=m linecode=lc_247-3ph
New Line.mv_f0_lv29_f0_l3_ls bus1=mv_f0_lv29_f0_n3.1.2.3 bus2=mv_f0_lv29_f0_c3.1.2.3 phases=3 length=10.0 units=m linecode=lc_248-3ph
New Line.mv_f0_lv29_f0_l4 bus1=mv_f0_lv29_f0_n3.1.2.3 bus2=mv_f0_lv29_f0_n4.1.2.3 phases=3 length=15.42 units=m linecode=lc_247-3ph
New Line.mv_f0_lv29_f0_l4_ls bus1=mv_f0_lv29_f0_n4.1.2.3 bus2=mv_f0_lv29_f0_c4.1.2.3 phases=3 length=10.0 units=m linecode=lc_248-3ph
New Line.mv_f0_lv30_f0_l0 bus1=mv_f0_lv30_busbar.1.2.3 bus2=mv_f0_lv30_f0_n0.1.2.3 phases=3 length=15.42 units=m linecode=lc_247-3ph
New Line.mv_f0_lv30_f0_l0_ls bus1=mv_f0_lv30_f0_n0.1.2.3 bus2=mv_f0_lv30_f0_c0.1.2.3 phases=3 length=10.0 units=m linecode=lc_248-3ph
New Line.mv_f0_lv30_f0_l1 bus1=mv_f0_lv30_f0_n0.1.2.3 bus2=mv_f0_lv30_f0_n1.1.2.3 phases=3 length=15.42 units=m linecode=lc_247-3ph
New Line.mv_f0_lv30_f0_l1_ls bus1=mv_f0_lv30_f0_n1.1.2.3 bus2=mv_f0_lv30_f0_c1.1.2.3 phases=3 length=10.0 units=m linecode=lc_248-3ph
New Line.mv_f0_lv30_f0_l2 bus1=mv_f0_lv30_f0_n1.1.2.3 bus2=mv_f0_lv30_f0_n2.1.2.3 phases=3 length=15.42 units=m linecode=lc_247-3ph
New Line.mv_f0_lv30_f0_l2_ls bus1=mv_f0_lv30_f0_n2.1.2.3 bus2=mv_f0_lv30_f0_c2.1.2.3 phases=3 length=10.0 units=m linecode=lc_248-3ph
New Line.mv_f0_lv31_f0_l0 bus1=mv_f0_lv31_busbar.1.2.3 bus2=mv_f0_lv31_f0_n0.1.2.3 phases=3 length=15.42 units=m linecode=lc_247-3ph
New Line.mv_f0_lv31_f0_l0_ls bus1=mv_f0_lv31_f0_n0.1.2.3 bus2=mv_f0_lv31_f0_c0.1.2.3 phases=3 length=10.0 units=m linecode=lc_248-3ph
New Line.mv_f0_lv31_f0_l1 bus1=mv_f0_lv31_f0_n0.1.2.3 bus2=mv_f0_lv31_f0_n1.1.2.3 phases=3 length=15.42 units=m linecode=lc_247-3ph
New Line.mv_f0_lv31_f0_l1_ls bus1=mv_f0_lv31_f0_n1.1.2.3 bus2=mv_f0_lv31_f0_c1.1.2.3 phases=3 length=10.0 units=m linecode=lc_248-3ph
New Line.mv_f0_lv32_f0_l0 bus1=mv_f0_lv32_busbar.1.2.3 bus2=mv_f0_lv32_f0_n0.1.2.3 phases=3 length=15.42 units=m linecode=lc_247-3ph
New Line.mv_f0_lv32_f0_l0_ls bus1=mv_f0_lv32_f0_n0.1.2.3 bus2=mv_f0_lv32_f0_c0.1.2.3 phases=3 length=10.0 units=m linecode=lc_248-3ph
New Line.mv_f0_lv33_f0_l0 bus1=mv_f0_lv33_busbar.1.2.3 bus2=mv_f0_lv33_f0_n0.1.2.3 phases=3 length=15.42 units=m linecode=lc_247-3ph
New Line.mv_f0_lv33_f0_l0_ls bus1=mv_f0_lv33_f0_n0.1.2.3 bus2=mv_f0_lv33_f0_c0.1.2.3 phases=3 length=10.0 units=m linecode=lc_248-3ph
New Line.mv_f0_lv34_f0_l0 bus1=mv_f0_lv34_busbar.1.2.3 bus2=mv_f0_lv34_f0_n0.1.2.3 phases=3 length=15.42 units=m linecode=lc_247-3ph
New Line.mv_f0_lv34_f0_l0_ls bus1=mv_f0_lv34_f0_n0.1.2.3 bus2=mv_f0_lv34_f0_c0.1.2.3 phases=3 length=10.0 units=m linecode=lc_248-3ph
New Line.mv_f0_lv34_f0_l1 bus1=mv_f0_lv34_f0_n0.1.2.3 bus2=mv_f0_lv34_f0_n1.1.2.3 phases=3 length=15.42 units=m linecode=lc_247-3ph
New Line.mv_f0_lv34_f0_l1_ls bus1=mv_f0_lv34_f0_n1.1.2.3 bus2=mv_f0_lv34_f0_c1.1.2.3 phases=3 length=10.0 units=m linecode=lc_248-3ph
New Line.mv_f0_lv35_f0_l0 bus1=mv_f0_lv35_busbar.1.2.3 bus2=mv_f0_lv35_f0_n0.1.2.3 phases=3 length=15.42 units=m linecode=lc_247-3ph
New Line.mv_f0_lv35_f0_l0_ls bus1=mv_f0_lv35_f0_n0.1.2.3 bus2=mv_f0_lv35_f0_c0.1.2.3 phases=3 length=10.0 units=m linecode=lc_248-3ph
New Line.mv_f0_lv35_f0_l1 bus1=mv_f0_lv35_f0_n0.1.2.3 bus2=mv_f0_lv35_f0_n1.1.2.3 phases=3 length=15.42 units=m linecode=lc_247-3ph
New Line.mv_f0_lv35_f0_l1_ls bus1=mv_f0_lv35_f0_n1.1.2.3 bus2=mv_f0_lv35_f0_c1.1.2.3 phases=3 length=10.0 units=m linecode=lc_248-3ph
New Line.mv_f0_lv36_f0_l0 bus1=mv_f0_lv36_busbar.1.2.3 bus2=mv_f0_lv36_f0_n0.1.2.3 phases=3 length=18.63 units=m linecode=lc_247-3ph
New Line.mv_f0_lv36_f0_l0_ls bus1=mv_f0_lv36_f0_n0.1.2.3 bus2=mv_f0_lv36_f0_c0.1.2.3 phases=3 length=10.0 units=m linecode=lc_248-3ph
New Line.mv_f0_lv36_f0_l1 bus1=mv_f0_lv36_f0_n0.1.2.3 bus2=mv_f0_lv36_f0_n1.1.2.3 phases=3 length=18.63 units=m linecode=lc_247-3ph
New Line.mv_f0_lv36_f0_l1_ls bus1=mv_f0_lv36_f0_n1.1.2.3 bus2=mv_f0_lv36_f0_c1.1.2.3 phases=3 length=10.0 units=m linecode=lc_248-3ph
New Line.mv_f0_lv36_f0_l2 bus1=mv_f0_lv36_f0_n1.1.2.3 bus2=mv_f0_lv36_f0_n2.1.2.3 phases=3 length=18.63 units=m linecode=lc_247-3ph
New Line.mv_f0_lv36_f0_l2_ls bus1=mv_f0_lv36_f0_n2.1.2.3 bus2=mv_f0_lv36_f0_c2.1.2.3 phases=3 length=10.0 units=m linecode=lc_248-3ph
New Line.mv_f0_lv36_f0_l3 bus1=mv_f0_lv36_f0_n2.1.2.3 bus2=mv_f0_lv36_f0_n3.1.2.3 phases=3 length=18.63 units=m linecode=lc_247-3ph
New Line.mv_f0_lv36_f0_l3_ls bus1=mv_f0_lv36_f0_n3.1.2.3 bus2=mv_f0_lv36_f0_c3.1.2.3 phases=3 length=10.0 units=m linecode=lc_248-3ph
New Line.mv_f0_lv36_f0_l4 bus1=mv_f0_lv36_f0_n3.1.2.3 bus2=mv_f0_lv36_f0_n4.1.2.3 phases=3 length=18.63 units=m linecode=lc_247-3ph
New Line.mv_f0_lv36_f0_l4_ls bus1=mv_f0_lv36_f0_n4.1.2.3 bus2=mv_f0_lv36_f0_c4.1.2.3 phases=3 length=10.0 units=m linecode=lc_248-3ph
New Line.mv_f0_lv36_f0_l5 bus1=mv_f0_lv36_f0_n4.1.2.3 bus2=mv_f0_lv36_f0_n5.1.2.3 phases=3 length=18.63 units=m linecode=lc_247-3ph
New Line.mv_f0_lv36_f0_l5_ls bus1=mv_f0_lv36_f0_n5.1.2.3 bus2=mv_f0_lv36_f0_c5.1.2.3 phases=3 length=10.0 units=m linecode=lc_248-3ph
New Line.mv_f0_lv36_f0_l6 bus1=mv_f0_lv36_f0_n5.1.2.3 bus2=mv_f0_lv36_f0_n6.1.2.3 phases=3 length=18.63 units=m linecode=lc_247-3ph
New Line.mv_f0_lv36_f0_l6_ls bus1=mv_f0_lv36_f0_n6.1.2.3 bus2=mv_f0_lv36_f0_c6.1.2.3 phases=3 length=10.0 units=m linecode=lc_248-3ph
New Line.mv_f0_lv36_f0_l7 bus1=mv_f0_lv36_f0_n6.1.2.3 bus2=mv_f0_lv36_f0_n7.1.2.3 phases=3 length=18.63 units=m linecode=lc_247-3ph
New Line.mv_f0_lv36_f0_l7_ls bus1=mv_f0_lv36_f0_n7.1.2.3 bus2=mv_f0_lv36_f0_c7.1.2.3 phases=3 length=10.0 units=m linecode=lc_248-3ph
New Line.mv_f0_lv36_f0_l8 bus1=mv_f0_lv36_f0_n7.1.2.3 bus2=mv_f0_lv36_f0_n8.1.2.3 phases=3 length=18.63 units=m linecode=lc_247-3ph
New Line.mv_f0_lv36_f0_l8_ls bus1=mv_f0_lv36_f0_n8.1.2.3 bus2=mv_f0_lv36_f0_c8.1.2.3 phases=3 length=10.0 units=m linecode=lc_248-3ph
New Line.mv_f0_lv36_f0_l9 bus1=mv_f0_lv36_f0_n8.1.2.3 bus2=mv_f0_lv36_f0_n9.1.2.3 phases=3 length=18.63 units=m linecode=lc_247-3ph
New Line.mv_f0_lv36_f0_l9_ls bus1=mv_f0_lv36_f0_n9.1.2.3 bus2=mv_f0_lv36_f0_c9.1.2.3 phases=3 length=10.0 units=m linecode=lc_248-3ph
New Line.mv_f0_lv36_f0_l10 bus1=mv_f0_lv36_f0_n9.1.2.3 bus2=mv_f0_lv36_f0_n10.1.2.3 phases=3 length=18.63 units=m linecode=lc_247-3ph
New Line.mv_f0_lv36_f0_l10_ls bus1=mv_f0_lv36_f0_n10.1.2.3 bus2=mv_f0_lv36_f0_c10.1.2.3 phases=3 length=10.0 units=m linecode=lc_248-3ph
New Line.mv_f0_lv36_f0_l11 bus1=mv_f0_lv36_f0_n10.1.2.3 bus2=mv_f0_lv36_f0_n11.1.2.3 phases=3 length=18.63 units=m linecode=lc_247-3ph
New Line.mv_f0_lv36_f0_l11_ls bus1=mv_f0_lv36_f0_n11.1.2.3 bus2=mv_f0_lv36_f0_c11.1.2.3 phases=3 length=10.0 units=m linecode=lc_248-3ph
New Line.mv_f0_lv36_f0_l12 bus1=mv_f0_lv36_f0_n11.1.2.3 bus2=mv_f0_lv36_f0_n12.1.2.3 phases=3 length=18.63 units=m linecode=lc_247-3ph
New Line.mv_f0_lv36_f0_l12_ls bus1=mv_f0_lv36_f0_n12.1.2.3 bus2=mv_f0_lv36_f0_c12.1.2.3 phases=3 length=10.0 units=m linecode=lc_248-3ph
New Line.mv_f0_lv36_f0_l13 bus1=mv_f0_lv36_f0_n12.1.2.3 bus2=mv_f0_lv36_f0_n13.1.2.3 phases=3 length=18.63 units=m linecode=lc_247-3ph
New Line.mv_f0_lv36_f0_l13_ls bus1=mv_f0_lv36_f0_n13.1.2.3 bus2=mv_f0_lv36_f0_c13.1.2.3 phases=3 length=10.0 units=m linecode=lc_248-3ph
New Line.mv_f0_lv36_f0_l14 bus1=mv_f0_lv36_f0_n13.1.2.3 bus2=mv_f0_lv36_f0_n14.1.2.3 phases=3 length=18.63 units=m linecode=lc_247-3ph
New Line.mv_f0_lv36_f0_l14_ls bus1=mv_f0_lv36_f0_n14.1.2.3 bus2=mv_f0_lv36_f0_c14.1.2.3 phases=3 length=10.0 units=m linecode=lc_248-3ph
New Line.mv_f0_lv36_f0_l15 bus1=mv_f0_lv36_f0_n14.1.2.3 bus2=mv_f0_lv36_f0_n15.1.2.3 phases=3 length=18.63 units=m linecode=lc_247-3ph
New Line.mv_f0_lv36_f0_l15_ls bus1=mv_f0_lv36_f0_n15.1.2.3 bus2=mv_f0_lv36_f0_c15.1.2.3 phases=3 length=10.0 units=m linecode=lc_248-3ph
New Line.mv_f0_lv36_f0_l16 bus1=mv_f0_lv36_f0_n15.1.2.3 bus2=mv_f0_lv36_f0_n16.1.2.3 phases=3 length=18.63 units=m linecode=lc_247-3ph
New Line.mv_f0_lv36_f0_l16_ls bus1=mv_f0_lv36_f0_n16.1.2.3 bus2=mv_f0_lv36_f0_c16.1.2.3 phases=3 length=10.0 units=m linecode=lc_248-3ph
New Line.mv_f0_lv36_f0_l17 bus1=mv_f0_lv36_f0_n16.1.2.3 bus2=mv_f0_lv36_f0_n17.1.2.3 phases=3 length=18.63 units=m linecode=lc_247-3ph
New Line.mv_f0_lv36_f0_l17_ls bus1=mv_f0_lv36_f0_n17.1.2.3 bus2=mv_f0_lv36_f0_c17.1.2.3 phases=3 length=10.0 units=m linecode=lc_248-3ph
New Line.mv_f0_lv36_f0_l18 bus1=mv_f0_lv36_f0_n17.1.2.3 bus2=mv_f0_lv36_f0_n18.1.2.3 phases=3 length=18.63 units=m linecode=lc_247-3ph
New Line.mv_f0_lv36_f0_l18_ls bus1=mv_f0_lv36_f0_n18.1.2.3 bus2=mv_f0_lv36_f0_c18.1.2.3 phases=3 length=10.0 units=m linecode=lc_248-3ph
New Line.mv_f0_lv36_f0_l19 bus1=mv_f0_lv36_f0_n18.1.2.3 bus2=mv_f0_lv36_f0_n19.1.2.3 phases=3 length=18.63 units=m linecode=lc_247-3ph
New Line.mv_f0_lv36_f0_l19_ls bus1=mv_f0_lv36_f0_n19.1.2.3 bus2=mv_f0_lv36_f0_c19.1.2.3 phases=3 length=10.0 units=m linecode=lc_248-3ph
New Line.mv_f0_lv36_f0_l20 bus1=mv_f0_lv36_f0_n19.1.2.3 bus2=mv_f0_lv36_f0_n20.1.2.3 phases=3 length=18.63 units=m linecode=lc_247-3ph
New Line.mv_f0_lv36_f0_l20_ls bus1=mv_f0_lv36_f0_n20.1.2.3 bus2=mv_f0_lv36_f0_c20.1.2.3 phases=3 length=10.0 units=m linecode=lc_248-3ph
New Line.mv_f0_lv36_f0_l21 bus1=mv_f0_lv36_f0_n20.1.2.3 bus2=mv_f0_lv36_f0_n21.1.2.3 phases=3 length=18.63 units=m linecode=lc_247-3ph
New Line.mv_f0_lv36_f0_l21_ls bus1=mv_f0_lv36_f0_n21.1.2.3 bus2=mv_f0_lv36_f0_c21.1.2.3 phases=3 length=10.0 units=m linecode=lc_248-3ph
New Line.mv_f0_lv36_f0_l22 bus1=mv_f0_lv36_f0_n21.1.2.3 bus2=mv_f0_lv36_f0_n22.1.2.3 phases=3 length=18.63 units=m linecode=lc_247-3ph
New Line.mv_f0_lv36_f0_l22_ls bus1=mv_f0_lv36_f0_n22.1.2.3 bus2=mv_f0_lv36_f0_c22.1.2.3 phases=3 length=10.0 units=m linecode=lc_248-3ph
New Line.mv_f0_lv36_f0_l23 bus1=mv_f0_lv36_f0_n22.1.2.3 bus2=mv_f0_lv36_f0_n23.1.2.3 phases=3 length=18.63 units=m linecode=lc_247-3ph
New Line.mv_f0_lv36_f0_l23_ls bus1=mv_f0_lv36_f0_n23.1.2.3 bus2=mv_f0_lv36_f0_c23.1.2.3 phases=3 length=10.0 units=m linecode=lc_248-3ph
New Line.mv_f0_lv36_f0_l24 bus1=mv_f0_lv36_f0_n23.1.2.3 bus2=mv_f0_lv36_f0_n24.1.2.3 phases=3 length=18.63 units=m linecode=lc_247-3ph
New Line.mv_f0_lv36_f0_l24_ls bus1=mv_f0_lv36_f0_n24.1.2.3 bus2=mv_f0_lv36_f0_c24.1.2.3 phases=3 length=10.0 units=m linecode=lc_248-3ph
New Line.mv_f0_lv36_f0_l25 bus1=mv_f0_lv36_f0_n24.1.2.3 bus2=mv_f0_lv36_f0_n25.1.2.3 phases=3 length=18.63 units=m linecode=lc_247-3ph
New Line.mv_f0_lv36_f0_l25_ls bus1=mv_f0_lv36_f0_n25.1.2.3 bus2=mv_f0_lv36_f0_c25.1.2.3 phases=3 length=10.0 units=m linecode=lc_248-3ph
New Line.mv_f0_lv36_f0_l26 bus1=mv_f0_lv36_f0_n25.1.2.3 bus2=mv_f0_lv36_f0_n26.1.2.3 phases=3 length=18.63 units=m linecode=lc_247-3ph
New Line.mv_f0_lv36_f0_l26_ls bus1=mv_f0_lv36_f0_n26.1.2.3 bus2=mv_f0_lv36_f0_c26.1.2.3 phases=3 length=10.0 units=m linecode=lc_248-3ph
New Line.mv_f0_lv36_f0_l27 bus1=mv_f0_lv36_f0_n26.1.2.3 bus2=mv_f0_lv36_f0_n27.1.2.3 phases=3 length=18.63 units=m linecode=lc_247-3ph
New Line.mv_f0_lv36_f0_l27_ls bus1=mv_f0_lv36_f0_n27.1.2.3 bus2=mv_f0_lv36_f0_c27.1.2.3 phases=3 length=10.0 units=m linecode=lc_248-3ph
New Line.mv_f0_lv36_f0_l28 bus1=mv_f0_lv36_f0_n27.1.2.3 bus2=mv_f0_lv36_f0_n28.1.2.3 phases=3 length=18.63 units=m linecode=lc_247-3ph
New Line.mv_f0_lv36_f0_l28_ls bus1=mv_f0_lv36_f0_n28.1.2.3 bus2=mv_f0_lv36_f0_c28.1.2.3 phases=3 length=10.0 units=m linecode=lc_248-3ph
...
